FoamFile
{
version         2.0;
format         ascii;
class         polyBoundaryMesh;
location         constant/polyMesh;
object         boundary;
}
//***************************************************
  5
(
AXIS
{
type         patch;
 nFaces                    3;
 startFace                   31;
}
 
INLET
{
type         patch;
 nFaces                    7;
 startFace                   34;
}
 
OUTLET
{
type         patch;
 nFaces                    3;
 startFace                   41;
}
 
WALL
{
type         patch;
 nFaces                    7;
 startFace                   44;
}
 
Interior_artificial_1
{
type         empty;
inGroups         1(empty);
 nFaces            21;
 startFace            51;
}
 
Interior_artificial_2
{
type         empty;
inGroups         1(empty);
 nFaces            21;
 startFace            72;
}
 
)
//***************************************************
